####################################################################
#  This file was made using the UWbridge3D problem type in GiD.    #
#  Created by:  Chris McGann and Pedro Arduino, 2012               #
#              -University of Washington-                          #
####################################################################

wipe

#-----------------------------------------------------------------------------------------
#  1. CREATE SOIL NODES AND FIXITIES
#-----------------------------------------------------------------------------------------
model BasicBuilder -ndm 3 -ndf 3

# define soil nodes
node        1     0.00000    0.00000    0.00000
node        2     0.00000    0.00000    4.65540
node        3     4.65540    0.00000    0.00000
node        4     0.00000    4.65540    0.00000
node        5     4.65540    0.00000    4.65540
node        6     0.00000    4.65540    4.65540
node        7     4.65540    4.65540    0.00000
node        8     4.65540    4.65540    4.65540
node        9     0.00000    0.00000    9.11270
node       10     9.11270    0.00000    0.00000
node       11     0.00000    9.11270    0.00000
node       12     4.65540    9.11270    0.00000
node       13     9.11270    0.00000    4.65540
node       14     0.00000    9.11270    4.65540
node       15     4.65540    0.00000    9.11270
node       16     0.00000    4.65540    9.11270
node       17     9.11270    4.65540    0.00000
node       18     4.65540    9.11270    4.65540
node       19     4.65540    4.65540    9.11270
node       20     9.11270    4.65540    4.65540
# ... 2177 like lines cut
puts "Finished creating soil nodes..."

# define boundary conditions for soil nodes
fix     1   1   1   1
fix     2   1   1   1
fix     3   1   1   1
fix     4   1   1   1
fix     5   1   1   1
fix     6   1   1   1
fix     7   1   1   1
fix     9   1   1   1
fix    10   1   1   1
fix    11   1   1   1
fix    12   1   1   1 
fix    13   1   1   1 
fix    14   1   1   1 
fix    15   1   1   1 
fix    16   1   1   1 
fix    17   1   1   1 
fix    21   1   1   1 
fix    22   1   1   1 
fix    23   1   1   1 
fix    24   1   1   1 
# ... 726 like lines cut
puts "Finished creating soil boundary conditions..."

#-----------------------------------------------------------------------------------------
#  2. CREATE SOIL MATERIALS
#-----------------------------------------------------------------------------------------

nDMaterial ElasticIsotropic 1 25000.0 0.3 2.67
nDMaterial ElasticIsotropic 2 25000.0 0.3 2.67
nDMaterial ElasticIsotropic 3 25000.0 0.3 2.67
nDMaterial ElasticIsotropic 4 25000.0 0.3 2.67

#-----------------------------------------------------------------------------------------
#  3. CREATE SOIL ELEMENTS
#-----------------------------------------------------------------------------------------

element SSPbrick 1  8 7 3 5 6 4 1 2  4 
element SSPbrick 2  19 8 5 15 16 6 2 9  4 
element SSPbrick 3  36 19 15 30 33 16 9 24  4 
element SSPbrick 4  63 36 30 59 57 33 24 52  4 
element SSPbrick 5  99 63 59 93 89 57 52 85  4 
element SSPbrick 6  144 99 93 135 133 89 85 127  4 
element SSPbrick 7  192 144 135 186 183 133 127 173  4 
element SSPbrick 8  252 192 186 231 230 183 173 206  4 
element SSPbrick 9  296 252 231 263 268 230 206 255  4 
element SSPbrick 10  18 12 7 8 14 11 4 6  4 
element SSPbrick 11  27 18 8 19 22 14 6 16  4 
element SSPbrick 12  46 27 19 36 42 22 16 33  4 
element SSPbrick 13  81 46 36 63 73 42 33 57  4 
element SSPbrick 14  124 81 63 99 110 73 57 89  4 
element SSPbrick 15  179 124 99 144 161 110 89 133  4 
element SSPbrick 16  240 179 144 192 218 161 133 183  4 
element SSPbrick 17  301 240 192 252 272 218 183 230  4 
element SSPbrick 18  349 301 252 296 340 272 230 268  4 
element SSPbrick 19  37 35 12 18 31 26 11 14  4 
element SSPbrick 20  49 37 18 27 43 31 14 22  4 
# ... 1708 like lines cut
puts "Finished creating soil elements..."

#-----------------------------------------------------------------------------------------
#  4. CREATE RECORDERS
#-----------------------------------------------------------------------------------------

file mkdir 3Dexample
recorder pvd 3Dexample disp vel accel eleResponse stress

#recorder Node -file displacement.out -time -nodeRange 1 2197 -dof 1 2 3 disp
#recorder Node -file acceleration.out -time -nodeRange 1 2197 -dof 1 2 3 accel
#recorder Node -file velocity.out -time -nodeRange 1 2197 -dof 1 2 3 vel
#recorder Element -file stress.out -time -eleRange 1 1728 stress
#recorder Element -file strain.out -time -eleRange 1 1728 strain

#-----------------------------------------------------------------------------------------
#  5. CREATE LOADING
#-----------------------------------------------------------------------------------------

pattern Plain 3 {Series -time {0 0.1 10000} -values {0 1 1} -factor 1} {
    load 2197 0.0 -0.025 0.0 
    load 2195 0.0 -0.05  0.0 
    load 2192 0.0 -0.05  0.0 
    load 2186 0.0 -0.025 0.0 
    load 2196 0.0 -0.05  0.0 
    load 2188 0.0 -0.1   0.0 
    load 2179 0.0 -0.1   0.0 
    load 2173 0.0 -0.05  0.0 
    load 2193 0.0 -0.05  0.0 
    load 2180 0.0 -0.1   0.0 
    load 2166 0.0 -0.1   0.0 
    load 2161 0.0 -0.05  0.0 
    load 2187 0.0 -0.025 0.0 
    load 2174 0.0 -0.05  0.0 
    load 2162 0.0 -0.05  0.0 
    load 2141 0.0 -0.025 0.0 
}

#-----------------------------------------------------------------------------------------
#  6. PERFORM ANALYSIS
#-----------------------------------------------------------------------------------------

# rayleigh damping parameters
set pi      [expr 4.0*atan(1.0)]
# damping ratio
set damp    0.02
# lower frequency
set omega1  [expr 2*$pi*0.2]
# upper frequency
set omega2  [expr 2*$pi*20]
# damping coefficients
set a0      [expr 2*$damp*$omega1*$omega2/($omega1 + $omega2)]
set a1      [expr 2*$damp/($omega1 + $omega2)]
puts "damping coefficients: a_0 = $a0;  a_1 = $a1"

constraints Transformation
test        NormDispIncr 1e-5 10 1
algorithm   Newton
numberer    RCM
system      Umfpack
integrator  Newmark 0.5 0.25
rayleigh    $a0 $a1 0.0 0.0
analysis    Transient

analyze    105 0.02

wipe
